(|SYSTEM|::|VERSION| '(20080430.))
#0Y_ #0Y |CHARSET|::|UTF-8|
#Y(#:|1 17 (DEFSTRUCT MDP INITIAL-STATE ...)-1|
   #903Y(00 00 00 00 00 00 00 00 20 01 00 2B 01 DA DB DC 38 01 72 9E 2F 03 5D
         0B 00 00 DE DF E0 DA 2F 07 DA E2 32 A3 DA 68 04 00 E3 63 E4 E5 6B 0C
         E7 E8 E9 EA EB 64 EC ED EE 01 02 6F 15 70 16 F1 F2 F3 F4 F5 63 6E 11
         1C 6B 0C E7 F7 E9 65 1E EB 64 EC ED EE 65 1F C0 70 16 F1 65 20 F3 65
         21 F5 63 6E 11 1C 6B 0C E7 65 22 E9 65 23 EB 64 EC ED EE 65 24 C0 70
         16 F1 65 25 F3 65 26 F5 63 6E 11 1C 6B 0C E7 65 27 E9 65 28 EB 64 EC
         ED EE 01 02 6F 15 70 16 F1 65 29 F3 65 2A F5 63 6E 11 1C 6B 0C E7 65
         2B E9 65 2C EB 64 EC ED EE 65 2D C1 70 16 F1 65 2E F3 65 2F F5 63 6E
         11 1C 6B 0C E7 65 30 E9 65 31 EB 64 EC ED EE 01 02 6F 15 70 16 F1 65
         32 F3 65 33 F5 63 6E 11 1C 7B 06 6B 34 E7 E8 E9 EA EB 64 EC ED EE 01
         02 6F 15 70 16 F1 65 35 65 36 65 37 65 38 65 39 6E 11 3A 6B 34 E7 F7
         E9 65 1E EB 64 EC ED EE 65 1F C1 70 16 F1 65 3B 65 36 65 3C 65 38 65
         3D 6E 11 3A 6B 34 E7 65 22 E9 65 23 EB 64 EC ED EE 65 24 C1 70 16 F1
         65 3E 65 36 65 3F 65 38 65 40 6E 11 3A 6B 34 E7 65 27 E9 65 28 EB 64
         EC ED EE 01 02 6F 15 70 16 F1 65 41 65 36 65 42 65 38 65 43 6E 11 3A
         6B 34 E7 65 2B E9 65 2C EB 64 EC ED EE 65 2D C2 70 16 F1 65 44 65 36
         65 45 65 38 65 46 6E 11 3A 6B 34 E7 65 30 E9 65 31 EB 64 EC ED EE 01
         02 6F 15 70 16 F1 65 47 65 36 65 48 65 38 65 49 6E 11 3A 7B 06 2D 08
         4A E3 2F 4B E3 B0 6D 4C 01 32 9C 16 04 65 4D 31 62 E5 2F 4B E5 65 4E
         65 4F 32 A2 E5 65 50 32 9C 65 51 31 62 E4 2F 4B E4 65 4E 65 52 32 A2
         E4 65 53 32 9C 65 54 31 62 65 55 31 62 65 56 2F 4B 65 56 65 4E 65 57
         32 A2 65 56 65 58 32 9C 65 56 65 59 DA 32 A2 65 5A 31 62 65 5B 31 62
         65 5C 2F 4B 65 5C 65 4E 65 5D 32 A2 65 5C 65 5E 32 9C 65 5C 65 59 DA
         32 A2 65 5F 31 62 65 60 31 62 65 61 2F 4B 65 61 65 4E 65 62 32 A2 65
         61 65 63 32 9C 65 61 65 59 DA 32 A2 65 64 31 62 65 65 31 62 65 66 2F
         4B 65 66 65 4E 65 67 32 A2 65 66 65 68 32 9C 65 66 65 59 DA 32 A2 65
         69 31 62 65 6A 31 62 65 6B 2F 4B 65 6B 65 4E 65 6C 32 A2 65 6B 65 6D
         32 9C 65 6B 65 59 DA 32 A2 65 6E 31 62 65 6F 31 62 65 70 2F 4B 65 70
         65 4E 65 71 32 A2 65 70 65 72 32 9C 65 70 65 59 DA 32 A2 65 73 31 62
         65 74 31 62 65 75 2F 4B 65 75 65 4E 65 76 32 A2 65 75 65 77 32 9C 65
         56 65 78 DA 32 A2 65 79 31 62 65 7A 31 62 65 7B 2F 4B 65 7B 65 4E 65
         7C 32 A2 65 7B 65 7D 32 9C 65 5C 65 78 DA 32 A2 65 7E 31 62 65 7F 31
         62 65 80 80 2F 4B 65 80 80 65 4E 65 80 81 32 A2 65 80 80 65 80 82 32
         9C 65 61 65 78 DA 32 A2 65 80 83 31 62 65 80 84 31 62 65 80 85 2F 4B
         65 80 85 65 4E 65 80 86 32 A2 65 80 85 65 80 87 32 9C 65 66 65 78 DA
         32 A2 65 80 88 31 62 65 80 89 31 62 65 80 8A 2F 4B 65 80 8A 65 4E 65
         80 8B 32 A2 65 80 8A 65 80 8C 32 9C 65 6B 65 78 DA 32 A2 65 80 8D 31
         62 65 80 8E 31 62 65 80 8F 2F 4B 65 80 8F 65 4E 65 80 90 32 A2 65 80
         8F 65 80 91 32 9C 65 70 65 78 DA 32 A2 DA 65 80 92 63 2D 03 80 93 DA
         2F 80 94 C5 19 01)
   (|COMMON-LISP-USER|::|MDP| |COMMON-LISP|::|STRUCTURE-OBJECT|
    |CLOS|::|CLOSCLASS| |CLOS|::|CLASS-NAMES|
    #Y(|COMMON-LISP-USER|::|DEFAULT-MODEL|
       #18Y(00 00 00 00 00 00 00 00 26 01 38 09 C5 FB 31 6D 19 01)
       (#.#'|COMMON-LISP|::|EQUAL|)
       (|COMMON-LISP|::|T| |COMMON-LISP|::|NIL| |COMMON-LISP|::|NIL|) ()
       |COMMON-LISP|::|NIL| 1)
    #Y(|COMMON-LISP-USER|::|DEFAULT-REWARDS|
       #18Y(00 00 00 00 00 00 00 00 26 01 38 09 C5 FB 31 6D 19 01)
       (#.#'|COMMON-LISP|::|EQUAL|)
       (|COMMON-LISP|::|T| |COMMON-LISP|::|NIL| |COMMON-LISP|::|NIL|) ()
       |COMMON-LISP|::|NIL| 1)
    #Y(|COMMON-LISP-USER|::|DEFAULT-HASH-KEY|
       #13Y(00 00 00 00 00 00 00 00 26 01 C5 19 01)
       (#.#'|COMMON-LISP|::|IDENTITY|)
       (|COMMON-LISP|::|T| |COMMON-LISP|::|NIL| |COMMON-LISP|::|NIL|) ()
       |COMMON-LISP|::|NIL| 1)
    |SYSTEM|::|STRUCTURE-UNDEFINE-ACCESSORIES|
    |SYSTEM|::|DEFSTRUCT-DESCRIPTION| |COMMON-LISP-USER|::|MAKE-MDP|
    |COMMON-LISP-USER|::|COPY-MDP| |COMMON-LISP-USER|::|MDP-P|
    |CLOS|::|<STRUCTURE-EFFECTIVE-SLOT-DEFINITION>| :|NAME|
    |COMMON-LISP-USER|::|INITIAL-STATE| :|INITARGS| (:|INITIAL-STATE|) :|TYPE|
    :|ALLOCATION| :|INSTANCE| |CLOS|::|INHERITABLE-INITER|
    |SYSTEM|::|MAKE-CONSTANT-INITFUNCTION|
    |CLOS|::|MAKE-INHERITABLE-SLOT-DEFINITION-INITER| |CLOS|::|INHERITABLE-DOC|
    (|COMMON-LISP|::|NIL|) |CLOS|::|LOCATION| 1. |CLOS|::|READONLY|
    |CLOS|::|MAKE-INSTANCE-<STRUCTURE-EFFECTIVE-SLOT-DEFINITION>|
    |COMMON-LISP-USER|::|MODEL| (:|MODEL|)
    #1=(|COMMON-LISP|::|MAKE-HASH-TABLE| :|TEST| #'|COMMON-LISP|::|EQUAL|)
    (|COMMON-LISP|::|NIL|) 2. |COMMON-LISP-USER|::|REWARDS| (:|REWARDS|)
    #2=(|COMMON-LISP|::|MAKE-HASH-TABLE| :|TEST| #'|COMMON-LISP|::|EQUAL|)
    (|COMMON-LISP|::|NIL|) 3. |COMMON-LISP-USER|::|TERMINAL-STATES|
    (:|TERMINAL-STATES|) (|COMMON-LISP|::|NIL|) 4.
    |COMMON-LISP-USER|::|HASH-KEY| (:|HASH-KEY|) #3=#'|COMMON-LISP|::|IDENTITY|
    (|COMMON-LISP|::|NIL|) 5. |COMMON-LISP-USER|::|NAME| (:|NAME|)
    (|COMMON-LISP|::|NIL|) 6. |CLOS|::|<STRUCTURE-DIRECT-SLOT-DEFINITION>|
    (|COMMON-LISP|::|NIL|) :|READERS| (|COMMON-LISP-USER|::|MDP-INITIAL-STATE|)
    :|WRITERS|
    ((|COMMON-LISP|::|SETF| |COMMON-LISP-USER|::|MDP-INITIAL-STATE|))
    |CLOS|::|MAKE-INSTANCE-<STRUCTURE-DIRECT-SLOT-DEFINITION>|
    (|COMMON-LISP|::|NIL|) (|COMMON-LISP-USER|::|MDP-MODEL|)
    ((|COMMON-LISP|::|SETF| |COMMON-LISP-USER|::|MDP-MODEL|))
    (|COMMON-LISP|::|NIL|) (|COMMON-LISP-USER|::|MDP-REWARDS|)
    ((|COMMON-LISP|::|SETF| |COMMON-LISP-USER|::|MDP-REWARDS|))
    (|COMMON-LISP|::|NIL|) (|COMMON-LISP-USER|::|MDP-TERMINAL-STATES|)
    ((|COMMON-LISP|::|SETF| |COMMON-LISP-USER|::|MDP-TERMINAL-STATES|))
    (|COMMON-LISP|::|NIL|) (|COMMON-LISP-USER|::|MDP-HASH-KEY|)
    ((|COMMON-LISP|::|SETF| |COMMON-LISP-USER|::|MDP-HASH-KEY|))
    (|COMMON-LISP|::|NIL|) (|COMMON-LISP-USER|::|MDP-NAME|)
    ((|COMMON-LISP|::|SETF| |COMMON-LISP-USER|::|MDP-NAME|))
    |CLOS|::|DEFINE-STRUCTURE-CLASS| |SYSTEM|::|REMOVE-OLD-DEFINITIONS|
    #Y(|COMMON-LISP-USER|::|MAKE-MDP|
       #90Y(00 00 00 00 00 00 00 00 A6 1B 06 00 01 00 3D 06 3B 05 07 38 09 CC
            FB 80 6D 05 3B 04 07 38 09 CC FB 80 6D 04 3D 03 3B 02 02 CD FA 3D
            01 69 00 01 E3 72 45 E4 AD E5 B6 32 44 E4 AD E6 B5 32 44 E4 AD E7
            B4 32 44 E4 AD E8 B3 32 44 E4 AD E9 B2 32 44 E4 AD EA B1 32 44 15
            19 07)
       (|COMMON-LISP|::|NIL| :|INITIAL-STATE| :|MODEL| :|REWARDS|
        :|TERMINAL-STATES| :|HASH-KEY| :|NAME| #.#'|COMMON-LISP|::|EQUAL|
        #.#'|COMMON-LISP|::|IDENTITY| 7. |COMMON-LISP-USER|::|MDP| 1. 2. 3. 4.
        5. 6.)
       (|COMMON-LISP|::|T| |COMMON-LISP|::|T| |COMMON-LISP|::|T|)
       (|COMMON-LISP|::|&KEY| (#:|INITIAL-STATE| |COMMON-LISP|::|NIL|)
        (#:|MODEL| #1#) (#:|REWARDS| #2#)
        (#:|TERMINAL-STATES| |COMMON-LISP|::|NIL|) (#:|HASH-KEY| #3#)
        (#:|NAME| |COMMON-LISP|::|NIL|))
       |COMMON-LISP|::|NIL| 1)
    (|COMMON-LISP|::|INLINE| |COMMON-LISP-USER|::|MDP-P|)
    |SYSTEM|::|INLINE-EXPANSION|
    ((|SYSTEM|::|OBJECT|)
     (|COMMON-LISP|::|DECLARE|
      (|SYSTEM|::|IN-DEFUN| |COMMON-LISP-USER|::|MDP-P|))
     (|COMMON-LISP|::|BLOCK| |COMMON-LISP-USER|::|MDP-P|
      (|SYSTEM|::|%STRUCTURE-TYPE-P| '|COMMON-LISP-USER|::|MDP|
       |SYSTEM|::|OBJECT|)))
    #Y(|COMMON-LISP-USER|::|MDP-P|
       #16Y(00 00 00 00 01 00 00 00 20 02 DA AE 32 47 19 02)
       (|COMMON-LISP-USER|::|MDP|)
       (|COMMON-LISP|::|T| |COMMON-LISP|::|NIL| |COMMON-LISP|::|NIL|))
    (|COMMON-LISP|::|INLINE| |COMMON-LISP-USER|::|COPY-MDP|)
    ((|COMMON-LISP|::|STRUCTURE|)
     (|COMMON-LISP|::|DECLARE|
      (|SYSTEM|::|IN-DEFUN| |COMMON-LISP-USER|::|COPY-MDP|))
     (|COMMON-LISP|::|BLOCK| |COMMON-LISP-USER|::|COPY-MDP|
      (|COMMON-LISP|::|COPY-STRUCTURE| |COMMON-LISP|::|STRUCTURE|)))
    #Y(|COMMON-LISP-USER|::|COPY-MDP|
       #15Y(00 00 00 00 01 00 00 00 26 02 AD 32 46 19 02) ()
       (|COMMON-LISP|::|T| |COMMON-LISP|::|NIL| |COMMON-LISP|::|NIL|)
       (|COMMON-LISP|::|STRUCTURE|) |COMMON-LISP|::|NIL| 1)
    (|COMMON-LISP|::|FUNCTION| |COMMON-LISP-USER|::|MDP-INITIAL-STATE|
     (|COMMON-LISP-USER|::|MDP|) |COMMON-LISP|::|T|)
    (|COMMON-LISP|::|INLINE| |COMMON-LISP-USER|::|MDP-INITIAL-STATE|)
    |COMMON-LISP-USER|::|MDP-INITIAL-STATE|
    ((|SYSTEM|::|OBJECT|)
     (|COMMON-LISP|::|DECLARE|
      (|SYSTEM|::|IN-DEFUN| |COMMON-LISP-USER|::|MDP-INITIAL-STATE|))
     (|COMMON-LISP|::|BLOCK| |COMMON-LISP-USER|::|MDP-INITIAL-STATE|
      (|COMMON-LISP|::|THE| |COMMON-LISP|::|T|
       (|SYSTEM|::|%STRUCTURE-REF| '|COMMON-LISP-USER|::|MDP|
        |SYSTEM|::|OBJECT| 1.))))
    #Y(|COMMON-LISP-USER|::|MDP-INITIAL-STATE|
       #17Y(00 00 00 00 01 00 00 00 20 02 DA AE DB 32 43 19 02)
       (|COMMON-LISP-USER|::|MDP| 1.)
       (|COMMON-LISP|::|T| |COMMON-LISP|::|NIL| |COMMON-LISP|::|NIL|))
    |SYSTEM|::|DEFSTRUCT-READER|
    (|COMMON-LISP|::|FUNCTION| |COMMON-LISP-USER|::|MDP-MODEL|
     (|COMMON-LISP-USER|::|MDP|) |COMMON-LISP|::|T|)
    (|COMMON-LISP|::|INLINE| |COMMON-LISP-USER|::|MDP-MODEL|)
    |COMMON-LISP-USER|::|MDP-MODEL|
    ((|SYSTEM|::|OBJECT|)
     (|COMMON-LISP|::|DECLARE|
      (|SYSTEM|::|IN-DEFUN| |COMMON-LISP-USER|::|MDP-MODEL|))
     (|COMMON-LISP|::|BLOCK| |COMMON-LISP-USER|::|MDP-MODEL|
      (|COMMON-LISP|::|THE| |COMMON-LISP|::|T|
       (|SYSTEM|::|%STRUCTURE-REF| '|COMMON-LISP-USER|::|MDP|
        |SYSTEM|::|OBJECT| 2.))))
    #Y(|COMMON-LISP-USER|::|MDP-MODEL|
       #17Y(00 00 00 00 01 00 00 00 20 02 DA AE DB 32 43 19 02)
       (|COMMON-LISP-USER|::|MDP| 2.)
       (|COMMON-LISP|::|T| |COMMON-LISP|::|NIL| |COMMON-LISP|::|NIL|))
    (|COMMON-LISP|::|FUNCTION| |COMMON-LISP-USER|::|MDP-REWARDS|
     (|COMMON-LISP-USER|::|MDP|) |COMMON-LISP|::|T|)
    (|COMMON-LISP|::|INLINE| |COMMON-LISP-USER|::|MDP-REWARDS|)
    |COMMON-LISP-USER|::|MDP-REWARDS|
    ((|SYSTEM|::|OBJECT|)
     (|COMMON-LISP|::|DECLARE|
      (|SYSTEM|::|IN-DEFUN| |COMMON-LISP-USER|::|MDP-REWARDS|))
     (|COMMON-LISP|::|BLOCK| |COMMON-LISP-USER|::|MDP-REWARDS|
      (|COMMON-LISP|::|THE| |COMMON-LISP|::|T|
       (|SYSTEM|::|%STRUCTURE-REF| '|COMMON-LISP-USER|::|MDP|
        |SYSTEM|::|OBJECT| 3.))))
    #Y(|COMMON-LISP-USER|::|MDP-REWARDS|
       #17Y(00 00 00 00 01 00 00 00 20 02 DA AE DB 32 43 19 02)
       (|COMMON-LISP-USER|::|MDP| 3.)
       (|COMMON-LISP|::|T| |COMMON-LISP|::|NIL| |COMMON-LISP|::|NIL|))
    (|COMMON-LISP|::|FUNCTION| |COMMON-LISP-USER|::|MDP-TERMINAL-STATES|
     (|COMMON-LISP-USER|::|MDP|) |COMMON-LISP|::|T|)
    (|COMMON-LISP|::|INLINE| |COMMON-LISP-USER|::|MDP-TERMINAL-STATES|)
    |COMMON-LISP-USER|::|MDP-TERMINAL-STATES|
    ((|SYSTEM|::|OBJECT|)
     (|COMMON-LISP|::|DECLARE|
      (|SYSTEM|::|IN-DEFUN| |COMMON-LISP-USER|::|MDP-TERMINAL-STATES|))
     (|COMMON-LISP|::|BLOCK| |COMMON-LISP-USER|::|MDP-TERMINAL-STATES|
      (|COMMON-LISP|::|THE| |COMMON-LISP|::|T|
       (|SYSTEM|::|%STRUCTURE-REF| '|COMMON-LISP-USER|::|MDP|
        |SYSTEM|::|OBJECT| 4.))))
    #Y(|COMMON-LISP-USER|::|MDP-TERMINAL-STATES|
       #17Y(00 00 00 00 01 00 00 00 20 02 DA AE DB 32 43 19 02)
       (|COMMON-LISP-USER|::|MDP| 4.)
       (|COMMON-LISP|::|T| |COMMON-LISP|::|NIL| |COMMON-LISP|::|NIL|))
    (|COMMON-LISP|::|FUNCTION| |COMMON-LISP-USER|::|MDP-HASH-KEY|
     (|COMMON-LISP-USER|::|MDP|) |COMMON-LISP|::|T|)
    (|COMMON-LISP|::|INLINE| |COMMON-LISP-USER|::|MDP-HASH-KEY|)
    |COMMON-LISP-USER|::|MDP-HASH-KEY|
    ((|SYSTEM|::|OBJECT|)
     (|COMMON-LISP|::|DECLARE|
      (|SYSTEM|::|IN-DEFUN| |COMMON-LISP-USER|::|MDP-HASH-KEY|))
     (|COMMON-LISP|::|BLOCK| |COMMON-LISP-USER|::|MDP-HASH-KEY|
      (|COMMON-LISP|::|THE| |COMMON-LISP|::|T|
       (|SYSTEM|::|%STRUCTURE-REF| '|COMMON-LISP-USER|::|MDP|
        |SYSTEM|::|OBJECT| 5.))))
    #Y(|COMMON-LISP-USER|::|MDP-HASH-KEY|
       #17Y(00 00 00 00 01 00 00 00 20 02 DA AE DB 32 43 19 02)
       (|COMMON-LISP-USER|::|MDP| 5.)
       (|COMMON-LISP|::|T| |COMMON-LISP|::|NIL| |COMMON-LISP|::|NIL|))
    (|COMMON-LISP|::|FUNCTION| |COMMON-LISP-USER|::|MDP-NAME|
     (|COMMON-LISP-USER|::|MDP|) |COMMON-LISP|::|T|)
    (|COMMON-LISP|::|INLINE| |COMMON-LISP-USER|::|MDP-NAME|)
    |COMMON-LISP-USER|::|MDP-NAME|
    ((|SYSTEM|::|OBJECT|)
     (|COMMON-LISP|::|DECLARE|
      (|SYSTEM|::|IN-DEFUN| |COMMON-LISP-USER|::|MDP-NAME|))
     (|COMMON-LISP|::|BLOCK| |COMMON-LISP-USER|::|MDP-NAME|
      (|COMMON-LISP|::|THE| |COMMON-LISP|::|T|
       (|SYSTEM|::|%STRUCTURE-REF| '|COMMON-LISP-USER|::|MDP|
        |SYSTEM|::|OBJECT| 6.))))
    #Y(|COMMON-LISP-USER|::|MDP-NAME|
       #17Y(00 00 00 00 01 00 00 00 20 02 DA AE DB 32 43 19 02)
       (|COMMON-LISP-USER|::|MDP| 6.)
       (|COMMON-LISP|::|T| |COMMON-LISP|::|NIL| |COMMON-LISP|::|NIL|))
    (|COMMON-LISP|::|FUNCTION|
     (|COMMON-LISP|::|SETF| |COMMON-LISP-USER|::|MDP-INITIAL-STATE|)
     (|COMMON-LISP|::|T| |COMMON-LISP-USER|::|MDP|) |COMMON-LISP|::|T|)
    (|COMMON-LISP|::|INLINE|
     (|COMMON-LISP|::|SETF| |COMMON-LISP-USER|::|MDP-INITIAL-STATE|))
    #.(|SYSTEM|::|GET-SETF-SYMBOL| '|COMMON-LISP-USER|::|MDP-INITIAL-STATE|)
    ((|SYSTEM|::|VALUE| |SYSTEM|::|OBJECT|)
     (|COMMON-LISP|::|DECLARE|
      (|SYSTEM|::|IN-DEFUN|
       #4=(|COMMON-LISP|::|SETF| |COMMON-LISP-USER|::|MDP-INITIAL-STATE|)))
     (|COMMON-LISP|::|BLOCK| |COMMON-LISP-USER|::|MDP-INITIAL-STATE|
      (|SYSTEM|::|%STRUCTURE-STORE| '|COMMON-LISP-USER|::|MDP|
       |SYSTEM|::|OBJECT| 1. |SYSTEM|::|VALUE|)))
    #Y(#4# #18Y(00 00 00 00 02 00 00 00 20 03 DA AE DB B1 32 44 19 03)
       (|COMMON-LISP-USER|::|MDP| 1.)
       (|COMMON-LISP|::|T| |COMMON-LISP|::|T| |COMMON-LISP|::|T|))
    |SYSTEM|::|DEFSTRUCT-WRITER|
    (|COMMON-LISP|::|FUNCTION|
     (|COMMON-LISP|::|SETF| |COMMON-LISP-USER|::|MDP-MODEL|)
     (|COMMON-LISP|::|T| |COMMON-LISP-USER|::|MDP|) |COMMON-LISP|::|T|)
    (|COMMON-LISP|::|INLINE|
     (|COMMON-LISP|::|SETF| |COMMON-LISP-USER|::|MDP-MODEL|))
    #.(|SYSTEM|::|GET-SETF-SYMBOL| '|COMMON-LISP-USER|::|MDP-MODEL|)
    ((|SYSTEM|::|VALUE| |SYSTEM|::|OBJECT|)
     (|COMMON-LISP|::|DECLARE|
      (|SYSTEM|::|IN-DEFUN|
       #5=(|COMMON-LISP|::|SETF| |COMMON-LISP-USER|::|MDP-MODEL|)))
     (|COMMON-LISP|::|BLOCK| |COMMON-LISP-USER|::|MDP-MODEL|
      (|SYSTEM|::|%STRUCTURE-STORE| '|COMMON-LISP-USER|::|MDP|
       |SYSTEM|::|OBJECT| 2. |SYSTEM|::|VALUE|)))
    #Y(#5# #18Y(00 00 00 00 02 00 00 00 20 03 DA AE DB B1 32 44 19 03)
       (|COMMON-LISP-USER|::|MDP| 2.)
       (|COMMON-LISP|::|T| |COMMON-LISP|::|T| |COMMON-LISP|::|T|))
    (|COMMON-LISP|::|FUNCTION|
     (|COMMON-LISP|::|SETF| |COMMON-LISP-USER|::|MDP-REWARDS|)
     (|COMMON-LISP|::|T| |COMMON-LISP-USER|::|MDP|) |COMMON-LISP|::|T|)
    (|COMMON-LISP|::|INLINE|
     (|COMMON-LISP|::|SETF| |COMMON-LISP-USER|::|MDP-REWARDS|))
    #.(|SYSTEM|::|GET-SETF-SYMBOL| '|COMMON-LISP-USER|::|MDP-REWARDS|)
    ((|SYSTEM|::|VALUE| |SYSTEM|::|OBJECT|)
     (|COMMON-LISP|::|DECLARE|
      (|SYSTEM|::|IN-DEFUN|
       #6=(|COMMON-LISP|::|SETF| |COMMON-LISP-USER|::|MDP-REWARDS|)))
     (|COMMON-LISP|::|BLOCK| |COMMON-LISP-USER|::|MDP-REWARDS|
      (|SYSTEM|::|%STRUCTURE-STORE| '|COMMON-LISP-USER|::|MDP|
       |SYSTEM|::|OBJECT| 3. |SYSTEM|::|VALUE|)))
    #Y(#6# #18Y(00 00 00 00 02 00 00 00 20 03 DA AE DB B1 32 44 19 03)
       (|COMMON-LISP-USER|::|MDP| 3.)
       (|COMMON-LISP|::|T| |COMMON-LISP|::|T| |COMMON-LISP|::|T|))
    (|COMMON-LISP|::|FUNCTION|
     (|COMMON-LISP|::|SETF| |COMMON-LISP-USER|::|MDP-TERMINAL-STATES|)
     (|COMMON-LISP|::|T| |COMMON-LISP-USER|::|MDP|) |COMMON-LISP|::|T|)
    (|COMMON-LISP|::|INLINE|
     (|COMMON-LISP|::|SETF| |COMMON-LISP-USER|::|MDP-TERMINAL-STATES|))
    #.(|SYSTEM|::|GET-SETF-SYMBOL| '|COMMON-LISP-USER|::|MDP-TERMINAL-STATES|)
    ((|SYSTEM|::|VALUE| |SYSTEM|::|OBJECT|)
     (|COMMON-LISP|::|DECLARE|
      (|SYSTEM|::|IN-DEFUN|
       #7=(|COMMON-LISP|::|SETF| |COMMON-LISP-USER|::|MDP-TERMINAL-STATES|)))
     (|COMMON-LISP|::|BLOCK| |COMMON-LISP-USER|::|MDP-TERMINAL-STATES|
      (|SYSTEM|::|%STRUCTURE-STORE| '|COMMON-LISP-USER|::|MDP|
       |SYSTEM|::|OBJECT| 4. |SYSTEM|::|VALUE|)))
    #Y(#7# #18Y(00 00 00 00 02 00 00 00 20 03 DA AE DB B1 32 44 19 03)
       (|COMMON-LISP-USER|::|MDP| 4.)
       (|COMMON-LISP|::|T| |COMMON-LISP|::|T| |COMMON-LISP|::|T|))
    (|COMMON-LISP|::|FUNCTION|
     (|COMMON-LISP|::|SETF| |COMMON-LISP-USER|::|MDP-HASH-KEY|)
     (|COMMON-LISP|::|T| |COMMON-LISP-USER|::|MDP|) |COMMON-LISP|::|T|)
    (|COMMON-LISP|::|INLINE|
     (|COMMON-LISP|::|SETF| |COMMON-LISP-USER|::|MDP-HASH-KEY|))
    #.(|SYSTEM|::|GET-SETF-SYMBOL| '|COMMON-LISP-USER|::|MDP-HASH-KEY|)
    ((|SYSTEM|::|VALUE| |SYSTEM|::|OBJECT|)
     (|COMMON-LISP|::|DECLARE|
      (|SYSTEM|::|IN-DEFUN|
       #8=(|COMMON-LISP|::|SETF| |COMMON-LISP-USER|::|MDP-HASH-KEY|)))
     (|COMMON-LISP|::|BLOCK| |COMMON-LISP-USER|::|MDP-HASH-KEY|
      (|SYSTEM|::|%STRUCTURE-STORE| '|COMMON-LISP-USER|::|MDP|
       |SYSTEM|::|OBJECT| 5. |SYSTEM|::|VALUE|)))
    #Y(#8# #18Y(00 00 00 00 02 00 00 00 20 03 DA AE DB B1 32 44 19 03)
       (|COMMON-LISP-USER|::|MDP| 5.)
       (|COMMON-LISP|::|T| |COMMON-LISP|::|T| |COMMON-LISP|::|T|))
    (|COMMON-LISP|::|FUNCTION|
     (|COMMON-LISP|::|SETF| |COMMON-LISP-USER|::|MDP-NAME|)
     (|COMMON-LISP|::|T| |COMMON-LISP-USER|::|MDP|) |COMMON-LISP|::|T|)
    (|COMMON-LISP|::|INLINE|
     (|COMMON-LISP|::|SETF| |COMMON-LISP-USER|::|MDP-NAME|))
    #.(|SYSTEM|::|GET-SETF-SYMBOL| '|COMMON-LISP-USER|::|MDP-NAME|)
    ((|SYSTEM|::|VALUE| |SYSTEM|::|OBJECT|)
     (|COMMON-LISP|::|DECLARE|
      (|SYSTEM|::|IN-DEFUN|
       #9=(|COMMON-LISP|::|SETF| |COMMON-LISP-USER|::|MDP-NAME|)))
     (|COMMON-LISP|::|BLOCK| |COMMON-LISP-USER|::|MDP-NAME|
      (|SYSTEM|::|%STRUCTURE-STORE| '|COMMON-LISP-USER|::|MDP|
       |SYSTEM|::|OBJECT| 6. |SYSTEM|::|VALUE|)))
    #Y(#9# #18Y(00 00 00 00 02 00 00 00 20 03 DA AE DB B1 32 44 19 03)
       (|COMMON-LISP-USER|::|MDP| 6.)
       (|COMMON-LISP|::|T| |COMMON-LISP|::|T| |COMMON-LISP|::|T|))
    |COMMON-LISP|::|TYPE| |SYSTEM|::|%SET-DOCUMENTATION|
    |CLOS|::|DEFSTRUCT-REMOVE-PRINT-OBJECT-METHOD|)
   (|COMMON-LISP|::|T| |COMMON-LISP|::|T| |COMMON-LISP|::|T|))
#Y(#:|17 21 (DEFSTRUCT (MDP-ACTION-MODEL #) (TRANSITIONS NIL) ...)-2|
   #331Y(00 00 00 00 00 00 00 00 20 01 DA DB DC 38 01 72 9E 2F 03 16 01 DA 2F
         04 DA DF E0 E1 E2 6B 09 E4 E5 E6 E7 E8 64 E9 EA EB 01 02 6F 12 70 13
         EE EF F0 F1 F2 63 6E 11 19 6B 09 E4 F4 E6 F5 E8 64 E9 EA EB F1 F1 6F
         12 70 13 EE F6 F0 F7 F2 63 6E 11 19 7B 02 6B 1E E4 E5 E6 E7 E8 64 E9
         EA EB 01 02 6F 12 70 13 EE 65 1F 65 20 65 21 65 22 65 23 6E 11 24 6B
         1E E4 F4 E6 F5 E8 64 E9 EA EB F1 F1 6F 12 70 13 EE 65 25 65 20 65 26
         65 22 65 27 6E 11 24 7B 02 63 65 28 63 73 08 00 32 A2 DA 2F 29 E2 2F
         2A E2 65 2B 32 9C 65 2C 31 62 65 28 2F 2A 65 28 65 2D 65 2E 32 A2 65
         28 65 2F 32 9C 65 30 31 62 65 31 31 62 65 32 2F 2A 65 32 65 2D 65 33
         32 A2 65 32 65 34 32 9C 65 32 65 35 DA 32 A2 65 36 31 62 65 37 31 62
         65 38 2F 2A 65 38 65 2D 65 39 32 A2 65 38 65 3A 32 9C 65 38 65 35 DA
         32 A2 65 3B 31 62 65 3C 31 62 65 3D 2F 2A 65 3D 65 2D 65 3E 32 A2 65
         3D 65 3F 32 9C 65 32 65 40 DA 32 A2 65 41 31 62 65 42 31 62 65 43 2F
         2A 65 43 65 2D 65 44 32 A2 65 43 65 45 32 9C 65 38 65 40 DA 32 A2 DA
         65 46 63 2D 03 47 C5 19 01)
   (|COMMON-LISP-USER|::|MDP-ACTION-MODEL| |COMMON-LISP|::|STRUCTURE-OBJECT|
    |CLOS|::|CLOSCLASS| |CLOS|::|CLASS-NAMES|
    |SYSTEM|::|STRUCTURE-UNDEFINE-ACCESSORIES|
    |SYSTEM|::|DEFSTRUCT-DESCRIPTION| |COMMON-LISP|::|LIST| 2.
    |COMMON-LISP-USER|::|MAKE-MDP-ACTION-MODEL|
    |CLOS|::|<STRUCTURE-EFFECTIVE-SLOT-DEFINITION>| :|NAME|
    |COMMON-LISP-USER|::|TRANSITIONS| :|INITARGS| (:|TRANSITIONS|) :|TYPE|
    :|ALLOCATION| :|INSTANCE| |CLOS|::|INHERITABLE-INITER|
    |SYSTEM|::|MAKE-CONSTANT-INITFUNCTION|
    |CLOS|::|MAKE-INHERITABLE-SLOT-DEFINITION-INITER| |CLOS|::|INHERITABLE-DOC|
    (|COMMON-LISP|::|NIL|) |CLOS|::|LOCATION| 0. |CLOS|::|READONLY|
    |CLOS|::|MAKE-INSTANCE-<STRUCTURE-EFFECTIVE-SLOT-DEFINITION>|
    |COMMON-LISP-USER|::|TIMES-EXECUTED| (:|TIMES-EXECUTED|)
    (|COMMON-LISP|::|NIL|) 1. |CLOS|::|<STRUCTURE-DIRECT-SLOT-DEFINITION>|
    (|COMMON-LISP|::|NIL|) :|READERS|
    (|COMMON-LISP-USER|::|MDP-ACTION-MODEL-TRANSITIONS|) :|WRITERS|
    ((|COMMON-LISP|::|SETF|
      |COMMON-LISP-USER|::|MDP-ACTION-MODEL-TRANSITIONS|))
    |CLOS|::|MAKE-INSTANCE-<STRUCTURE-DIRECT-SLOT-DEFINITION>|
    (|COMMON-LISP|::|NIL|)
    (|COMMON-LISP-USER|::|MDP-ACTION-MODEL-TIMES-EXECUTED|)
    ((|COMMON-LISP|::|SETF|
      |COMMON-LISP-USER|::|MDP-ACTION-MODEL-TIMES-EXECUTED|))
    |COMMON-LISP-USER|::|COPY-MDP-ACTION-MODEL|
    |CLOS|::|UNDEFINE-STRUCTURE-CLASS| |SYSTEM|::|REMOVE-OLD-DEFINITIONS|
    #Y(|COMMON-LISP-USER|::|MAKE-MDP-ACTION-MODEL|
       #27Y(00 00 00 00 00 00 00 00 A6 1B 02 00 00 00 3D 02 3B 01 02 C7 F9 AE
            AE 61 02 19 03)
       (:|TRANSITIONS| :|TIMES-EXECUTED| 0.)
       (|COMMON-LISP|::|T| |COMMON-LISP|::|NIL| |COMMON-LISP|::|NIL|)
       (|COMMON-LISP|::|&KEY| (#:|TRANSITIONS| |COMMON-LISP|::|NIL|)
        (#:|TIMES-EXECUTED| 0.))
       |COMMON-LISP|::|NIL| 1)
    (|COMMON-LISP|::|INLINE| |COMMON-LISP-USER|::|COPY-MDP-ACTION-MODEL|)
    |SYSTEM|::|INLINE-EXPANSION|
    ((|COMMON-LISP|::|STRUCTURE|)
     (|COMMON-LISP|::|DECLARE|
      (|SYSTEM|::|IN-DEFUN| |COMMON-LISP-USER|::|COPY-MDP-ACTION-MODEL|))
     (|COMMON-LISP|::|BLOCK| |COMMON-LISP-USER|::|COPY-MDP-ACTION-MODEL|
      (|COMMON-LISP|::|COPY-LIST| |COMMON-LISP|::|STRUCTURE|)))
    #Y(|COMMON-LISP-USER|::|COPY-MDP-ACTION-MODEL|
       #15Y(00 00 00 00 01 00 00 00 26 02 AD 31 AB 19 02) ()
       (|COMMON-LISP|::|T| |COMMON-LISP|::|NIL| |COMMON-LISP|::|NIL|)
       (|COMMON-LISP|::|STRUCTURE|) |COMMON-LISP|::|NIL| 1)
    (|COMMON-LISP|::|FUNCTION|
     |COMMON-LISP-USER|::|MDP-ACTION-MODEL-TRANSITIONS|
     (|COMMON-LISP-USER|::|MDP-ACTION-MODEL|) |COMMON-LISP|::|T|)
    (|COMMON-LISP|::|INLINE|
     |COMMON-LISP-USER|::|MDP-ACTION-MODEL-TRANSITIONS|)
    |COMMON-LISP-USER|::|MDP-ACTION-MODEL-TRANSITIONS|
    ((|SYSTEM|::|OBJECT|)
     (|COMMON-LISP|::|DECLARE|
      (|SYSTEM|::|IN-DEFUN|
       |COMMON-LISP-USER|::|MDP-ACTION-MODEL-TRANSITIONS|))
     (|COMMON-LISP|::|BLOCK| |COMMON-LISP-USER|::|MDP-ACTION-MODEL-TRANSITIONS|
      (|COMMON-LISP|::|THE| |COMMON-LISP|::|T|
       (|COMMON-LISP|::|NTH| 0. . #1=(|SYSTEM|::|OBJECT|)))))
    #Y(|COMMON-LISP-USER|::|MDP-ACTION-MODEL-TRANSITIONS|
       #14Y(00 00 00 00 01 00 00 00 20 02 9E 5B 19 02) ()
       (|COMMON-LISP|::|T| |COMMON-LISP|::|NIL| |COMMON-LISP|::|NIL|))
    |SYSTEM|::|DEFSTRUCT-READER|
    (|COMMON-LISP|::|FUNCTION|
     |COMMON-LISP-USER|::|MDP-ACTION-MODEL-TIMES-EXECUTED|
     (|COMMON-LISP-USER|::|MDP-ACTION-MODEL|) |COMMON-LISP|::|T|)
    (|COMMON-LISP|::|INLINE|
     |COMMON-LISP-USER|::|MDP-ACTION-MODEL-TIMES-EXECUTED|)
    |COMMON-LISP-USER|::|MDP-ACTION-MODEL-TIMES-EXECUTED|
    ((|SYSTEM|::|OBJECT|)
     (|COMMON-LISP|::|DECLARE|
      (|SYSTEM|::|IN-DEFUN|
       |COMMON-LISP-USER|::|MDP-ACTION-MODEL-TIMES-EXECUTED|))
     (|COMMON-LISP|::|BLOCK|
      |COMMON-LISP-USER|::|MDP-ACTION-MODEL-TIMES-EXECUTED|
      (|COMMON-LISP|::|THE| |COMMON-LISP|::|T|
       (|COMMON-LISP|::|NTH| 1. . #1#))))
    #Y(|COMMON-LISP-USER|::|MDP-ACTION-MODEL-TIMES-EXECUTED|
       #15Y(00 00 00 00 01 00 00 00 20 02 9E 5C 5B 19 02) ()
       (|COMMON-LISP|::|T| |COMMON-LISP|::|NIL| |COMMON-LISP|::|NIL|))
    (|COMMON-LISP|::|FUNCTION|
     (|COMMON-LISP|::|SETF| |COMMON-LISP-USER|::|MDP-ACTION-MODEL-TRANSITIONS|)
     (|COMMON-LISP|::|T| |COMMON-LISP-USER|::|MDP-ACTION-MODEL|)
     |COMMON-LISP|::|T|)
    (|COMMON-LISP|::|INLINE|
     (|COMMON-LISP|::|SETF|
      |COMMON-LISP-USER|::|MDP-ACTION-MODEL-TRANSITIONS|))
    #.(|SYSTEM|::|GET-SETF-SYMBOL|
       '|COMMON-LISP-USER|::|MDP-ACTION-MODEL-TRANSITIONS|)
    ((|SYSTEM|::|VALUE| |SYSTEM|::|OBJECT|)
     (|COMMON-LISP|::|DECLARE|
      (|SYSTEM|::|IN-DEFUN|
       #2=(|COMMON-LISP|::|SETF|
           |COMMON-LISP-USER|::|MDP-ACTION-MODEL-TRANSITIONS|)))
     (|COMMON-LISP|::|BLOCK| |COMMON-LISP-USER|::|MDP-ACTION-MODEL-TRANSITIONS|
      (|COMMON-LISP|::|SETF|
       (|COMMON-LISP|::|NTH| 0. . #3=(|SYSTEM|::|OBJECT|)) .
       #4=(|SYSTEM|::|VALUE|))))
    #Y(#2# #16Y(00 00 00 00 02 00 00 00 20 03 AD AF 31 B6 19 03) ()
       (|COMMON-LISP|::|T| |COMMON-LISP|::|T| |COMMON-LISP|::|T|))
    |SYSTEM|::|DEFSTRUCT-WRITER|
    (|COMMON-LISP|::|FUNCTION|
     (|COMMON-LISP|::|SETF|
      |COMMON-LISP-USER|::|MDP-ACTION-MODEL-TIMES-EXECUTED|)
     (|COMMON-LISP|::|T| |COMMON-LISP-USER|::|MDP-ACTION-MODEL|)
     |COMMON-LISP|::|T|)
    (|COMMON-LISP|::|INLINE|
     (|COMMON-LISP|::|SETF|
      |COMMON-LISP-USER|::|MDP-ACTION-MODEL-TIMES-EXECUTED|))
    #.(|SYSTEM|::|GET-SETF-SYMBOL|
       '|COMMON-LISP-USER|::|MDP-ACTION-MODEL-TIMES-EXECUTED|)
    ((|SYSTEM|::|VALUE| |SYSTEM|::|OBJECT|)
     (|COMMON-LISP|::|DECLARE|
      (|SYSTEM|::|IN-DEFUN|
       #5=(|COMMON-LISP|::|SETF|
           |COMMON-LISP-USER|::|MDP-ACTION-MODEL-TIMES-EXECUTED|)))
     (|COMMON-LISP|::|BLOCK|
      |COMMON-LISP-USER|::|MDP-ACTION-MODEL-TIMES-EXECUTED|
      (|COMMON-LISP|::|SETF| (|COMMON-LISP|::|NTH| 1. . #3#) . #4#)))
    #Y(#5# #17Y(00 00 00 00 02 00 00 00 20 03 95 01 AF 31 B6 19 03) ()
       (|COMMON-LISP|::|T| |COMMON-LISP|::|T| |COMMON-LISP|::|T|))
    |COMMON-LISP|::|TYPE| |SYSTEM|::|%SET-DOCUMENTATION|)
   (|COMMON-LISP|::|T| |COMMON-LISP|::|T| |COMMON-LISP|::|T|))
#Y(#:|23 26 (DEFSTRUCT (TRANSITION #) DESTINATION ...)-3|
   #460Y(00 00 00 00 00 00 00 00 20 01 DA DB DC 38 01 72 9E 2F 03 16 01 DA 2F
         04 DA DF E0 E1 E2 6B 09 E4 E5 E6 E7 E8 64 E9 EA EB 01 02 6F 12 70 13
         EE EF F0 F1 F2 63 6E 11 19 6B 09 E4 F4 E6 F5 E8 64 E9 EA EB 01 02 6F
         12 70 13 EE F6 F0 F7 F2 63 6E 11 19 6B 09 E4 65 1E E6 65 1F E8 64 E9
         EA EB F1 F1 6F 12 70 13 EE 65 20 F0 65 21 F2 63 6E 11 19 7B 03 6B 22
         E4 E5 E6 E7 E8 64 E9 EA EB 01 02 6F 12 70 13 EE 65 23 65 24 65 25 65
         26 65 27 6E 11 28 6B 22 E4 F4 E6 F5 E8 64 E9 EA EB 01 02 6F 12 70 13
         EE 65 29 65 24 65 2A 65 26 65 2B 6E 11 28 6B 22 E4 65 1E E6 65 1F E8
         64 E9 EA EB F1 F1 6F 12 70 13 EE 65 2C 65 24 65 2D 65 26 65 2E 6E 11
         28 7B 03 63 65 2F 63 73 08 00 32 A2 DA 2F 30 E2 2F 31 E2 65 32 32 9C
         65 33 31 62 65 2F 2F 31 65 2F 65 34 65 35 32 A2 65 2F 65 36 32 9C 65
         37 31 62 65 38 31 62 65 39 2F 31 65 39 65 34 65 3A 32 A2 65 39 65 3B
         32 9C 65 39 65 3C DA 32 A2 65 3D 31 62 65 3E 31 62 65 3F 2F 31 65 3F
         65 34 65 40 32 A2 65 3F 65 41 32 9C 65 3F 65 3C DA 32 A2 65 42 31 62
         65 43 31 62 65 44 2F 31 65 44 65 34 65 45 32 A2 65 44 65 46 32 9C 65
         44 65 3C DA 32 A2 65 47 31 62 65 48 31 62 65 49 2F 31 65 49 65 34 65
         4A 32 A2 65 49 65 4B 32 9C 65 39 65 4C DA 32 A2 65 4D 31 62 65 4E 31
         62 65 4F 2F 31 65 4F 65 34 65 50 32 A2 65 4F 65 51 32 9C 65 3F 65 4C
         DA 32 A2 65 52 31 62 65 53 31 62 65 54 2F 31 65 54 65 34 65 55 32 A2
         65 54 65 56 32 9C 65 44 65 4C DA 32 A2 DA 65 57 63 2D 03 58 C5 19 01)
   (|COMMON-LISP-USER|::|TRANSITION| |COMMON-LISP|::|STRUCTURE-OBJECT|
    |CLOS|::|CLOSCLASS| |CLOS|::|CLASS-NAMES|
    |SYSTEM|::|STRUCTURE-UNDEFINE-ACCESSORIES|
    |SYSTEM|::|DEFSTRUCT-DESCRIPTION| |COMMON-LISP|::|LIST| 3.
    |COMMON-LISP-USER|::|MAKE-TRANSITION|
    |CLOS|::|<STRUCTURE-EFFECTIVE-SLOT-DEFINITION>| :|NAME|
    |COMMON-LISP-USER|::|DESTINATION| :|INITARGS| (:|DESTINATION|) :|TYPE|
    :|ALLOCATION| :|INSTANCE| |CLOS|::|INHERITABLE-INITER|
    |SYSTEM|::|MAKE-CONSTANT-INITFUNCTION|
    |CLOS|::|MAKE-INHERITABLE-SLOT-DEFINITION-INITER| |CLOS|::|INHERITABLE-DOC|
    (|COMMON-LISP|::|NIL|) |CLOS|::|LOCATION| 0. |CLOS|::|READONLY|
    |CLOS|::|MAKE-INSTANCE-<STRUCTURE-EFFECTIVE-SLOT-DEFINITION>|
    |COMMON-LISP-USER|::|PROBABILITY| (:|PROBABILITY|) (|COMMON-LISP|::|NIL|)
    1. |COMMON-LISP-USER|::|TIMES-ACHIEVED| (:|TIMES-ACHIEVED|)
    (|COMMON-LISP|::|NIL|) 2. |CLOS|::|<STRUCTURE-DIRECT-SLOT-DEFINITION>|
    (|COMMON-LISP|::|NIL|) :|READERS|
    (|COMMON-LISP-USER|::|TRANSITION-DESTINATION|) :|WRITERS|
    ((|COMMON-LISP|::|SETF| |COMMON-LISP-USER|::|TRANSITION-DESTINATION|))
    |CLOS|::|MAKE-INSTANCE-<STRUCTURE-DIRECT-SLOT-DEFINITION>|
    (|COMMON-LISP|::|NIL|) (|COMMON-LISP-USER|::|TRANSITION-PROBABILITY|)
    ((|COMMON-LISP|::|SETF| |COMMON-LISP-USER|::|TRANSITION-PROBABILITY|))
    (|COMMON-LISP|::|NIL|) (|COMMON-LISP-USER|::|TRANSITION-TIMES-ACHIEVED|)
    ((|COMMON-LISP|::|SETF| |COMMON-LISP-USER|::|TRANSITION-TIMES-ACHIEVED|))
    |COMMON-LISP-USER|::|COPY-TRANSITION| |CLOS|::|UNDEFINE-STRUCTURE-CLASS|
    |SYSTEM|::|REMOVE-OLD-DEFINITIONS|
    #Y(|COMMON-LISP-USER|::|MAKE-TRANSITION|
       #30Y(00 00 00 00 00 00 00 00 A6 1B 03 00 00 00 3D 03 3D 02 3B 01 02 C8
            F9 AF AF AF 61 03 19 04)
       (:|DESTINATION| :|PROBABILITY| :|TIMES-ACHIEVED| 0.)
       (|COMMON-LISP|::|T| |COMMON-LISP|::|NIL| |COMMON-LISP|::|NIL|)
       (|COMMON-LISP|::|&KEY| (#:|DESTINATION| |COMMON-LISP|::|NIL|)
        (#:|PROBABILITY| |COMMON-LISP|::|NIL|) (#:|TIMES-ACHIEVED| 0.))
       |COMMON-LISP|::|NIL| 1)
    (|COMMON-LISP|::|INLINE| |COMMON-LISP-USER|::|COPY-TRANSITION|)
    |SYSTEM|::|INLINE-EXPANSION|
    ((|COMMON-LISP|::|STRUCTURE|)
     (|COMMON-LISP|::|DECLARE|
      (|SYSTEM|::|IN-DEFUN| |COMMON-LISP-USER|::|COPY-TRANSITION|))
     (|COMMON-LISP|::|BLOCK| |COMMON-LISP-USER|::|COPY-TRANSITION|
      (|COMMON-LISP|::|COPY-LIST| |COMMON-LISP|::|STRUCTURE|)))
    #Y(|COMMON-LISP-USER|::|COPY-TRANSITION|
       #15Y(00 00 00 00 01 00 00 00 26 02 AD 31 AB 19 02) ()
       (|COMMON-LISP|::|T| |COMMON-LISP|::|NIL| |COMMON-LISP|::|NIL|)
       (|COMMON-LISP|::|STRUCTURE|) |COMMON-LISP|::|NIL| 1)
    (|COMMON-LISP|::|FUNCTION| |COMMON-LISP-USER|::|TRANSITION-DESTINATION|
     (|COMMON-LISP-USER|::|TRANSITION|) |COMMON-LISP|::|T|)
    (|COMMON-LISP|::|INLINE| |COMMON-LISP-USER|::|TRANSITION-DESTINATION|)
    |COMMON-LISP-USER|::|TRANSITION-DESTINATION|
    ((|SYSTEM|::|OBJECT|)
     (|COMMON-LISP|::|DECLARE|
      (|SYSTEM|::|IN-DEFUN| |COMMON-LISP-USER|::|TRANSITION-DESTINATION|))
     (|COMMON-LISP|::|BLOCK| |COMMON-LISP-USER|::|TRANSITION-DESTINATION|
      (|COMMON-LISP|::|THE| |COMMON-LISP|::|T|
       (|COMMON-LISP|::|NTH| 0. . #1=(|SYSTEM|::|OBJECT|)))))
    #Y(|COMMON-LISP-USER|::|TRANSITION-DESTINATION|
       #14Y(00 00 00 00 01 00 00 00 20 02 9E 5B 19 02) ()
       (|COMMON-LISP|::|T| |COMMON-LISP|::|NIL| |COMMON-LISP|::|NIL|))
    |SYSTEM|::|DEFSTRUCT-READER|
    (|COMMON-LISP|::|FUNCTION| |COMMON-LISP-USER|::|TRANSITION-PROBABILITY|
     (|COMMON-LISP-USER|::|TRANSITION|) |COMMON-LISP|::|T|)
    (|COMMON-LISP|::|INLINE| |COMMON-LISP-USER|::|TRANSITION-PROBABILITY|)
    |COMMON-LISP-USER|::|TRANSITION-PROBABILITY|
    ((|SYSTEM|::|OBJECT|)
     (|COMMON-LISP|::|DECLARE|
      (|SYSTEM|::|IN-DEFUN| |COMMON-LISP-USER|::|TRANSITION-PROBABILITY|))
     (|COMMON-LISP|::|BLOCK| |COMMON-LISP-USER|::|TRANSITION-PROBABILITY|
      (|COMMON-LISP|::|THE| |COMMON-LISP|::|T|
       (|COMMON-LISP|::|NTH| 1. . #1#))))
    #Y(|COMMON-LISP-USER|::|TRANSITION-PROBABILITY|
       #15Y(00 00 00 00 01 00 00 00 20 02 9E 5C 5B 19 02) ()
       (|COMMON-LISP|::|T| |COMMON-LISP|::|NIL| |COMMON-LISP|::|NIL|))
    (|COMMON-LISP|::|FUNCTION| |COMMON-LISP-USER|::|TRANSITION-TIMES-ACHIEVED|
     (|COMMON-LISP-USER|::|TRANSITION|) |COMMON-LISP|::|T|)
    (|COMMON-LISP|::|INLINE| |COMMON-LISP-USER|::|TRANSITION-TIMES-ACHIEVED|)
    |COMMON-LISP-USER|::|TRANSITION-TIMES-ACHIEVED|
    ((|SYSTEM|::|OBJECT|)
     (|COMMON-LISP|::|DECLARE|
      (|SYSTEM|::|IN-DEFUN| |COMMON-LISP-USER|::|TRANSITION-TIMES-ACHIEVED|))
     (|COMMON-LISP|::|BLOCK| |COMMON-LISP-USER|::|TRANSITION-TIMES-ACHIEVED|
      (|COMMON-LISP|::|THE| |COMMON-LISP|::|T|
       (|COMMON-LISP|::|NTH| 2. . #1#))))
    #Y(|COMMON-LISP-USER|::|TRANSITION-TIMES-ACHIEVED|
       #16Y(00 00 00 00 01 00 00 00 20 02 9E 5C 5C 5B 19 02) ()
       (|COMMON-LISP|::|T| |COMMON-LISP|::|NIL| |COMMON-LISP|::|NIL|))
    (|COMMON-LISP|::|FUNCTION|
     (|COMMON-LISP|::|SETF| |COMMON-LISP-USER|::|TRANSITION-DESTINATION|)
     (|COMMON-LISP|::|T| |COMMON-LISP-USER|::|TRANSITION|) |COMMON-LISP|::|T|)
    (|COMMON-LISP|::|INLINE|
     (|COMMON-LISP|::|SETF| |COMMON-LISP-USER|::|TRANSITION-DESTINATION|))
    #.(|SYSTEM|::|GET-SETF-SYMBOL|
       '|COMMON-LISP-USER|::|TRANSITION-DESTINATION|)
    ((|SYSTEM|::|VALUE| |SYSTEM|::|OBJECT|)
     (|COMMON-LISP|::|DECLARE|
      (|SYSTEM|::|IN-DEFUN|
       #2=(|COMMON-LISP|::|SETF|
           |COMMON-LISP-USER|::|TRANSITION-DESTINATION|)))
     (|COMMON-LISP|::|BLOCK| |COMMON-LISP-USER|::|TRANSITION-DESTINATION|
      (|COMMON-LISP|::|SETF|
       (|COMMON-LISP|::|NTH| 0. . #3=(|SYSTEM|::|OBJECT|)) .
       #4=(|SYSTEM|::|VALUE|))))
    #Y(#2# #16Y(00 00 00 00 02 00 00 00 20 03 AD AF 31 B6 19 03) ()
       (|COMMON-LISP|::|T| |COMMON-LISP|::|T| |COMMON-LISP|::|T|))
    |SYSTEM|::|DEFSTRUCT-WRITER|
    (|COMMON-LISP|::|FUNCTION|
     (|COMMON-LISP|::|SETF| |COMMON-LISP-USER|::|TRANSITION-PROBABILITY|)
     (|COMMON-LISP|::|T| |COMMON-LISP-USER|::|TRANSITION|) |COMMON-LISP|::|T|)
    (|COMMON-LISP|::|INLINE|
     (|COMMON-LISP|::|SETF| |COMMON-LISP-USER|::|TRANSITION-PROBABILITY|))
    #.(|SYSTEM|::|GET-SETF-SYMBOL|
       '|COMMON-LISP-USER|::|TRANSITION-PROBABILITY|)
    ((|SYSTEM|::|VALUE| |SYSTEM|::|OBJECT|)
     (|COMMON-LISP|::|DECLARE|
      (|SYSTEM|::|IN-DEFUN|
       #5=(|COMMON-LISP|::|SETF|
           |COMMON-LISP-USER|::|TRANSITION-PROBABILITY|)))
     (|COMMON-LISP|::|BLOCK| |COMMON-LISP-USER|::|TRANSITION-PROBABILITY|
      (|COMMON-LISP|::|SETF| (|COMMON-LISP|::|NTH| 1. . #3#) . #4#)))
    #Y(#5# #17Y(00 00 00 00 02 00 00 00 20 03 95 01 AF 31 B6 19 03) ()
       (|COMMON-LISP|::|T| |COMMON-LISP|::|T| |COMMON-LISP|::|T|))
    (|COMMON-LISP|::|FUNCTION|
     (|COMMON-LISP|::|SETF| |COMMON-LISP-USER|::|TRANSITION-TIMES-ACHIEVED|)
     (|COMMON-LISP|::|T| |COMMON-LISP-USER|::|TRANSITION|) |COMMON-LISP|::|T|)
    (|COMMON-LISP|::|INLINE|
     (|COMMON-LISP|::|SETF| |COMMON-LISP-USER|::|TRANSITION-TIMES-ACHIEVED|))
    #.(|SYSTEM|::|GET-SETF-SYMBOL|
       '|COMMON-LISP-USER|::|TRANSITION-TIMES-ACHIEVED|)
    ((|SYSTEM|::|VALUE| |SYSTEM|::|OBJECT|)
     (|COMMON-LISP|::|DECLARE|
      (|SYSTEM|::|IN-DEFUN|
       #6=(|COMMON-LISP|::|SETF|
           |COMMON-LISP-USER|::|TRANSITION-TIMES-ACHIEVED|)))
     (|COMMON-LISP|::|BLOCK| |COMMON-LISP-USER|::|TRANSITION-TIMES-ACHIEVED|
      (|COMMON-LISP|::|SETF| (|COMMON-LISP|::|NTH| 2. . #3#) . #4#)))
    #Y(#6# #18Y(00 00 00 00 02 00 00 00 20 03 9E 5C 79 AF 31 B6 19 03) ()
       (|COMMON-LISP|::|T| |COMMON-LISP|::|T| |COMMON-LISP|::|T|))
    |COMMON-LISP|::|TYPE| |SYSTEM|::|%SET-DOCUMENTATION|)
   (|COMMON-LISP|::|T| |COMMON-LISP|::|T| |COMMON-LISP|::|T|))
#Y(#:|28 29 (DEFUN ACTION-MODEL (A S M) ...)-4|
   #20Y(00 00 00 00 00 00 00 00 20 01 DA 2F 01 DA DC 32 9C C5 19 01)
   (|COMMON-LISP-USER|::|ACTION-MODEL| |SYSTEM|::|REMOVE-OLD-DEFINITIONS|
    #Y(|COMMON-LISP-USER|::|ACTION-MODEL|
       #25Y(00 00 00 00 03 00 00 00 26 04 AF AF AF 38 01 71 6E DA 38 02 31 C8
            5C 19 04)
       (#.#'|COMMON-LISP|::|EQ|)
       (|COMMON-LISP|::|T| |COMMON-LISP|::|T| |COMMON-LISP|::|T|)
       (|COMMON-LISP-USER|::|A| |COMMON-LISP-USER|::|S|
        |COMMON-LISP-USER|::|M|)
       |COMMON-LISP|::|NIL| 1))
   (|COMMON-LISP|::|T| |COMMON-LISP|::|T| |COMMON-LISP|::|T|))
#Y(#:|31 34 (DEFUN TRANSITIONS (A S M) ...)-5|
   #20Y(00 00 00 00 00 00 00 00 20 01 DA 2F 01 DA DC 32 9C C5 19 01)
   (|COMMON-LISP-USER|::|TRANSITIONS| |SYSTEM|::|REMOVE-OLD-DEFINITIONS|
    #Y(|COMMON-LISP-USER|::|TRANSITIONS|
       #20Y(00 00 00 00 03 00 00 00 26 04 AF AF AF 6E 03 00 9D 5B 19 05)
       (|COMMON-LISP-USER|::|ACTION-MODEL|)
       (|COMMON-LISP|::|T| |COMMON-LISP|::|T| |COMMON-LISP|::|T|)
       (|COMMON-LISP-USER|::|A| |COMMON-LISP-USER|::|S|
        |COMMON-LISP-USER|::|M|)
       "Returns the transitions resulting from executing\n
  action a in state s according to model M."
       1))
   (|COMMON-LISP|::|T| |COMMON-LISP|::|T| |COMMON-LISP|::|T|))
#Y(#:|36 38 (DEFUN ACTIONS (S M) ...)-6|
   #20Y(00 00 00 00 00 00 00 00 20 01 DA 2F 01 DA DC 32 9C C5 19 01)
   (|COMMON-LISP-USER|::|ACTIONS| |SYSTEM|::|REMOVE-OLD-DEFINITIONS|
    #Y(|COMMON-LISP-USER|::|ACTIONS|
       #22Y(00 00 00 00 02 00 00 00 26 03 DA AF AF 38 01 71 6E 33 00 16 19 03)
       (#.#'|COMMON-LISP|::|CAR|)
       (|COMMON-LISP|::|T| |COMMON-LISP|::|T| |COMMON-LISP|::|T|)
       (|COMMON-LISP-USER|::|S| |COMMON-LISP-USER|::|M|)
       "Returns the list of actions feasible in state s according to model M."
       1))
   (|COMMON-LISP|::|T| |COMMON-LISP|::|T| |COMMON-LISP|::|T|))
